13
Lattice="20.0 0.0 0.0 0.0 20.0 0.0 0.0 0.0 20.0" Properties=species:S:1:pos:R:3 pbc="T T T"
Pt      10.00000000      10.00000000      10.00000000
Pt      12.23008534      10.00000000       8.62171440
Pt      12.23008534      10.00000000      11.37828560
Pt       7.76991466      10.00000000       8.62171440
Pt       7.76991466      10.00000000      11.37828560
Pt       8.62171440      12.23008534      10.00000000
Pt      11.37828560      12.23008534      10.00000000
Pt       8.62171440       7.76991466      10.00000000
Pt      11.37828560       7.76991466      10.00000000
Pt      10.00000000       8.62171440      12.23008534
Pt      10.00000000      11.37828560      12.23008534
Pt      10.00000000       8.62171440       7.76991466
Pt      10.00000000      11.37828560       7.76991466
